data_cif

_audit_creation_method             'generated by GULP'

_symmetry_space_group_name_H-M     'P 1'
_symmetry_Int_Tables_number        1
_symmetry_cell_setting             triclinic

_cell_length_a                       15.0732
_cell_length_b                       15.0652
_cell_length_c                       15.0881
_cell_angle_alpha                   90.0171
_cell_angle_beta                    89.8533
_cell_angle_gamma                   89.9739

loop_
_atom_site_label
_atom_site_fract_x
_atom_site_fract_y
_atom_site_fract_z
_atom_site_occupancy
  Si          0.25000      0.10420      0.39580  1.0000
  Si          0.74914      0.90271      0.40610  1.0000
  Si          0.75495      0.10992      0.60943  1.0000
  Si          0.25933      0.90022      0.60219  1.0000
  Si          0.39735      0.24870      0.10164  1.0000
  Si          0.40463      0.75326      0.90335  1.0000
  Si          0.60927      0.75416      0.11095  1.0000
  Si          0.60575      0.25386      0.90000  1.0000
  Si          0.10249      0.39751      0.25083  1.0000
  Si          0.90111      0.40565      0.74882  1.0000
  Si          0.10940      0.60954      0.75763  1.0000
  Si          0.89795      0.60310      0.25597  1.0000
  Al          0.10946      0.25530      0.60545  1.0000
  Si          0.90189      0.75700      0.60994  1.0000
  Si          0.10628      0.75114      0.39929  1.0000
  Si          0.89960      0.25149      0.40066  1.0000
  Al          0.25233      0.40051      0.89870  1.0000
  Si          0.74957      0.40087      0.10640  1.0000
  Si          0.75636      0.60982      0.90357  1.0000
  Al          0.25588      0.60376      0.10975  1.0000
  Si          0.40308      0.10865      0.74773  1.0000
  Si          0.40133      0.90035      0.25212  1.0000
  Al          0.60516      0.10954      0.25551  1.0000
  Si          0.61043      0.90337      0.75844  1.0000
  Si          0.75709      0.90483      0.61061  1.0000
  Si          0.25175      0.39718      0.10644  1.0000
  Si          0.26056      0.10774      0.60036  1.0000
  Si          0.25263      0.89788      0.39732  1.0000
  Si          0.75055      0.10832      0.40448  1.0000
  Si          0.61034      0.75875      0.90582  1.0000
  Si          0.10317      0.24960      0.39730  1.0000
  Si          0.60325      0.25576      0.10439  1.0000
  Si          0.39939      0.25144      0.89739  1.0000
  Si          0.40380      0.75138      0.10938  1.0000
  Si          0.90386      0.61100      0.75784  1.0000
  Si          0.39792      0.10443      0.24924  1.0000
  Si          0.10350      0.60254      0.25545  1.0000
  Si          0.89719      0.39756      0.25264  1.0000
  Si          0.10705      0.40290      0.75194  1.0000
  Al          0.89779      0.75235      0.40308  1.0000
  Si          0.90030      0.25835      0.60532  1.0000
  Al          0.10899      0.75621      0.60716  1.0000
  Si          0.75460      0.60556      0.10747  1.0000
  Si          0.25754      0.60820      0.90077  1.0000
  Al          0.75223      0.40220      0.89771  1.0000
  Si          0.60578      0.90052      0.25878  1.0000
  Si          0.60774      0.10767      0.75572  1.0000
  Al          0.40296      0.89864      0.75150  1.0000
  O2          0.22484      0.00089      0.38537  1.0000
  O2          0.72413      0.51308      0.88785  1.0000
  O2          0.77414      0.00553      0.39188  1.0000
  O2          0.28278      0.50897      0.88393  1.0000
  O2          0.78444      0.00810      0.62183  1.0000
  O2          0.28450      0.49396      0.12506  1.0000
  O2          0.23968      0.00495      0.61317  1.0000
  O2          0.72597      0.50434      0.12007  1.0000
  O2          0.38530      0.22160      0.99960  1.0000
  O2          0.88385      0.72474      0.51282  1.0000
  O2          0.39163      0.77574      0.00695  1.0000
  O2          0.88700      0.28043      0.50148  1.0000
  O2          0.62226      0.78449      0.00932  1.0000
  O2          0.11877      0.27997      0.49402  1.0000
  O2          0.61928      0.22934      0.00257  1.0000
  O2          0.12213      0.72584      0.49815  1.0000
  O2          0.99919      0.38515      0.22327  1.0000
  O2          0.51433      0.88614      0.72698  1.0000
  O2          0.00255      0.39073      0.77292  1.0000
  O2          0.50230      0.88756      0.28145  1.0000
  O2          0.00567      0.62242      0.78521  1.0000
  O2          0.49440      0.12075      0.28209  1.0000
  O2          0.00027      0.61545      0.23119  1.0000
  O2          0.50733      0.12227      0.72684  1.0000
  O2          0.99798      0.22860      0.61991  1.0000
  O2          0.50777      0.72755      0.12257  1.0000
  O2          0.00017      0.78589      0.62140  1.0000
  O2          0.49898      0.27875      0.11453  1.0000
  O2          0.00715      0.77998      0.38455  1.0000
  O2          0.50279      0.27463      0.88741  1.0000
  O2          0.00041      0.22291      0.38606  1.0000
  O2          0.50954      0.72885      0.89223  1.0000
  O2          0.22366      0.38606      0.00797  1.0000
  O2          0.72482      0.89214      0.51016  1.0000
  O2          0.77941      0.38693      0.00854  1.0000
  O2          0.28138      0.88560      0.49759  1.0000
  O2          0.78237      0.62015      0.00648  1.0000
  O2          0.28271      0.12015      0.49542  1.0000
  O2          0.23213      0.62194      0.00076  1.0000
  O2          0.72708      0.12168      0.50808  1.0000
  O2          0.38908      0.00981      0.77406  1.0000
  O2          0.88459      0.49911      0.27981  1.0000
  O2          0.38802      0.00147      0.22411  1.0000
  O2          0.88934      0.51006      0.72647  1.0000
  O2          0.62047      0.99853      0.22899  1.0000
  O2          0.12093      0.50702      0.73303  1.0000
  O2          0.62036      0.00635      0.78358  1.0000
  O2          0.11455      0.49846      0.28165  1.0000
  O2          0.16667      0.16650      0.37582  1.0000
  O2          0.67775      0.67979      0.88506  1.0000
  O2          0.82852      0.84133      0.38235  1.0000
  O2          0.34109      0.33316      0.87728  1.0000
  O2          0.83325      0.17791      0.62880  1.0000
  O2          0.34380      0.67223      0.13620  1.0000
  O2          0.17578      0.84494      0.62675  1.0000
  O2          0.66447      0.34025      0.12645  1.0000
  O2          0.37906      0.16567      0.16491  1.0000
  O2          0.88089      0.67849      0.68007  1.0000
  O2          0.38385      0.83560      0.84449  1.0000
  O2          0.87901      0.33247      0.33466  1.0000
  O2          0.62967      0.83283      0.17891  1.0000
  O2          0.13090      0.34591      0.66820  1.0000
  O2          0.62870      0.17080      0.83736  1.0000
  O2          0.12624      0.66677      0.33624  1.0000
  O2          0.16790      0.37709      0.17109  1.0000
  O2          0.67923      0.88488      0.67939  1.0000
  O2          0.83938      0.38168      0.82851  1.0000
  O2          0.33500      0.88020      0.33208  1.0000
  O2          0.17419      0.63265      0.83833  1.0000
  O2          0.67054      0.13337      0.34481  1.0000
  O2          0.83579      0.62389      0.17194  1.0000
  O2          0.34466      0.13160      0.66162  1.0000
  O2          0.17880      0.16654      0.62429  1.0000
  O2          0.67359      0.67151      0.12841  1.0000
  O2          0.83727      0.84047      0.62960  1.0000
  O2          0.33062      0.32665      0.12616  1.0000
  O2          0.17304      0.83261      0.37452  1.0000
  O2          0.66412      0.33517      0.87542  1.0000
  O2          0.83455      0.17017      0.38259  1.0000
  O2          0.34180      0.67187      0.87920  1.0000
  O2          0.16392      0.37557      0.83364  1.0000
  O2          0.66527      0.88082      0.34429  1.0000
  O2          0.82959      0.37736      0.17381  1.0000
  O2          0.34111      0.87470      0.66066  1.0000
  O2          0.83970      0.62987      0.84081  1.0000
  O2          0.32758      0.12474      0.32667  1.0000
  O2          0.16405      0.62360      0.17464  1.0000
  O2          0.67332      0.12746      0.67449  1.0000
  O2          0.37933      0.17200      0.82973  1.0000
  O2          0.87230      0.66347      0.33539  1.0000
  O2          0.38371      0.83619      0.17061  1.0000
  O2          0.87841      0.34402      0.66445  1.0000
  O2          0.62654      0.17681      0.16692  1.0000
  O2          0.12982      0.66931      0.67623  1.0000
  O2          0.63138      0.84139      0.84286  1.0000
  O2          0.12160      0.32959      0.32958  1.0000
